[General]
network = PingPong
sim-time-limit = 20s
simtime-resolution = ps